/*--------------------------------*- C++ -*----------------------------------*\
|                                                                             |
|                Generated by the CfdOF workbench for FreeCAD                 |
|                  https://gitlab.com/opensimproject/CfdOF                    |
|                                                                             |
\*---------------------------------------------------------------------------*/
FoamFile
{
    version     2.0;
    format      ascii;
    class       volScalarField;
    object      p;
}
// * * * * * * * * * * * * * * * * * * * * * * * * * * * * * * * * * * * * * //

dimensions      [0 2 -2 0 0 0 0];

internalField   uniform 83333.33333333334;

boundaryField
{

    wall
    {
        type        zeroGradient;
    }

    inlet
    {
        type        fixedValue;
        value       uniform 116666.66666666667;
    }

    outlet
    {
        type        totalPressure;
        p0          uniform 0.0;
        value       $internalField;
    }

    inlet001
    {
        type        fixedValue;
        value       uniform 91666.66666666667;
    }

    defaultFaces
    {
        type        zeroGradient;
    }

}

// ************************************************************************* //
